FoamFile
{
    version     2.0;
    format      ascii;
    class       dictionary;
    object      transportProperties;
}
#include        "../constant/keyParameters"
transportModel  Newtonian;
nu              $nu;
