FoamFile
{
    version     2.0;
    format      ascii;
    class       volScalarField;
    object      nut;
}
dimensions      [0 2 -1 0 0 0 0];
internalField   uniform 0;
boundaryField
{
    airfoil
    {
        type            nutUSpaldingWallFunction;
        value           uniform 0;
    }
    inlet
    {
        type            calculated;
        value           uniform 0;
    }
    outlet
    {
        type            calculated;
        value           uniform 0;
    }
    top
    {
        type            calculated;
        value           uniform 0;
    }
    bottom
    {
        type            calculated;
        value           uniform 0;
    }
    frontAndBack
    {
        type            empty;
    }
}
