FoamFile
{
    format      ascii;
    class       dictionary;
    object      decomposeParDict;
}
#include        "../constant/keyParameters"
numberOfSubdomains $block;
method          scotch;
